Version 4
SHEET 1 3676 2772
WIRE 2000 -336 1680 -336
WIRE 1680 -304 1680 -336
WIRE 2000 -272 2000 -336
WIRE 1680 -176 1680 -224
WIRE 2000 -128 2000 -192
WIRE 2160 -128 2000 -128
WIRE 1680 -64 1680 -96
WIRE 2000 -48 2000 -128
WIRE 2160 -16 2160 -128
WIRE 2160 -16 2032 -16
WIRE 2000 80 2000 16
FLAG 2000 80 0
FLAG 1680 -64 0
SYMBOL EXTRA\\VolReg\\TL431 2016 -48 M0
SYMATTR InstName U1
SYMBOL voltage 1680 -192 R0
WINDOW 123 0 0 Left 0
WINDOW 39 0 0 Left 0
SYMATTR InstName V2
SYMATTR Value 3.3
SYMBOL res 1984 -288 R0
SYMATTR InstName R1
SYMATTR Value 500
SYMBOL voltage 1680 -320 R0
WINDOW 123 0 0 Left 0
WINDOW 39 0 0 Left 0
SYMATTR InstName V4
SYMATTR Value 0
TEXT 1704 -424 Left 2 !.dc V2 0 9
