Version 4
SHEET 1 1200 712
WIRE -352 -304 -448 -304
WIRE -112 -304 -352 -304
WIRE -48 -304 -112 -304
WIRE 32 -304 -48 -304
WIRE 384 -304 288 -304
WIRE 592 -304 384 -304
WIRE 704 -304 592 -304
WIRE 912 -304 704 -304
WIRE -48 -288 -48 -304
WIRE 912 -288 912 -304
WIRE 384 -272 384 -304
WIRE 592 -272 592 -304
WIRE 704 -272 704 -304
WIRE -448 -192 -448 -304
WIRE -352 -192 -352 -224
WIRE -352 -192 -448 -192
WIRE -352 -176 -352 -192
WIRE 160 -176 160 -208
WIRE 384 -176 384 -192
WIRE 384 -176 160 -176
WIRE 592 -176 592 -208
WIRE 592 -176 384 -176
WIRE 704 -176 704 -208
WIRE 160 -144 160 -176
WIRE 384 -144 384 -176
WIRE -352 -64 -352 -96
WIRE 160 -48 160 -80
WIRE 384 -48 384 -64
WIRE 384 -48 160 -48
WIRE 160 -16 160 -48
WIRE -112 96 -112 -304
WIRE 80 96 -112 96
WIRE -112 112 -112 96
WIRE 80 128 80 96
WIRE 256 128 176 128
WIRE 256 192 256 128
WIRE 256 192 224 192
WIRE 448 192 256 192
WIRE -112 208 -112 192
WIRE 128 208 128 192
WIRE 128 208 -112 208
WIRE 448 208 448 192
WIRE 128 240 128 208
WIRE 224 272 160 272
WIRE -112 320 -112 208
WIRE 128 352 128 304
WIRE 224 352 128 352
WIRE 128 368 128 352
WIRE -112 432 -112 384
FLAG 160 -16 0
FLAG 704 -176 0
FLAG -48 -224 0
FLAG -352 -64 0
FLAG 704 -304 OUTP
FLAG 912 -208 0
FLAG 128 368 0
FLAG 448 288 0
FLAG -112 432 0
SYMBOL EXTRA\\VolReg\\LM317-TI 160 -304 R0
SYMATTR InstName U2
SYMBOL voltage -352 -192 R0
WINDOW 123 0 0 Left 0
WINDOW 39 0 0 Left 0
SYMATTR InstName V1
SYMATTR Value 12
SYMBOL res 368 -288 R0
SYMATTR InstName R1
SYMATTR Value 120
SYMBOL diode 608 -208 R180
WINDOW 0 24 64 Left 2
WINDOW 3 24 0 Left 2
SYMATTR InstName D1
SYMATTR Value 1N4002
SYMBOL res 368 -160 R0
SYMATTR InstName 5k
SYMATTR Value {R}
SYMBOL cap 144 -144 R0
SYMATTR InstName C1
SYMATTR Value {C2}
SYMBOL cap 688 -272 R0
SYMATTR InstName C2
SYMATTR Value 1µ
SYMBOL cap -64 -288 R0
SYMATTR InstName C3
SYMATTR Value 0.1µ
SYMBOL voltage -352 -320 R0
WINDOW 123 0 0 Left 0
WINDOW 39 0 0 Left 0
SYMATTR InstName V3
SYMATTR Value SINE(0 500m 10k)
SYMBOL current 912 -288 R0
WINDOW 3 24 28 Left 2
WINDOW 123 0 0 Left 0
WINDOW 39 24 56 Left 2
SYMATTR InstName I1
SYMATTR Value {Iload}
SYMATTR SpiceLine load
SYMBOL EXTRA\\VolReg\\TL431 144 240 M0
SYMATTR InstName U1
SYMBOL res -128 96 R0
SYMATTR InstName R2
SYMATTR Value 1k
SYMBOL res 208 256 R0
SYMATTR InstName R3
SYMATTR Value 10k
SYMBOL res 208 176 R0
SYMATTR InstName R4
SYMATTR Value 70k
SYMBOL current 448 208 R0
WINDOW 3 24 28 Left 2
WINDOW 123 0 0 Left 0
WINDOW 39 24 56 Left 2
SYMATTR InstName I2
SYMATTR Value {Iload}
SYMATTR SpiceLine load
SYMBOL cap -128 320 R0
SYMATTR InstName C4
SYMATTR Value 10µ
SYMBOL npn 80 192 R270
SYMATTR InstName Q1
SYMATTR Value 2N3904
TEXT 8 -592 Left 2 ;.tran 2m
TEXT -72 -536 Left 2 !.step dec param R 500 1k 1000
TEXT -72 -592 Left 2 !.op
TEXT -72 -488 Left 2 ;.step param C2 list 1f 10u 1
TEXT -72 -640 Left 2 !.param C2=10u R=700 Iload=1n
TEXT -72 -448 Left 2 ;.step dec param Iload 100u 10m 2
