Version 4
SHEET 1 2768 2772
WIRE 688 -1504 688 -1536
WIRE 880 -1440 880 -1536
WIRE -512 -1392 -512 -1440
WIRE -336 -1392 -336 -1440
WIRE -144 -1392 -144 -1472
WIRE 688 -1392 688 -1424
WIRE 816 -1392 688 -1392
WIRE 688 -1360 688 -1392
WIRE 880 -1312 880 -1344
WIRE 1344 -1296 1072 -1296
WIRE -512 -1280 -512 -1312
WIRE -336 -1280 -336 -1312
WIRE -144 -1280 -144 -1312
WIRE 688 -1232 688 -1264
WIRE 880 -1200 880 -1232
WIRE 1072 -1200 1072 -1296
WIRE 1072 -1200 880 -1200
WIRE 1136 -1200 1072 -1200
WIRE 1328 -1200 1216 -1200
WIRE 1344 -1200 1344 -1296
WIRE 1344 -1200 1328 -1200
WIRE 1536 -1200 1344 -1200
WIRE 144 -1184 32 -1184
WIRE 400 -1184 144 -1184
WIRE 496 -1184 400 -1184
WIRE 624 -1184 624 -1312
WIRE 624 -1184 496 -1184
WIRE 880 -1152 880 -1200
WIRE 144 -1136 144 -1184
WIRE 1344 -1136 1344 -1200
WIRE 1536 -1120 1536 -1200
WIRE 688 -1072 688 -1104
WIRE 32 -1040 32 -1184
WIRE 144 -1040 144 -1056
WIRE 144 -1040 32 -1040
WIRE 624 -1024 624 -1184
WIRE 880 -1024 880 -1072
WIRE 1344 -1024 1344 -1056
WIRE 1536 -1024 1536 -1056
WIRE 144 -1008 144 -1040
WIRE 816 -976 688 -976
WIRE 688 -944 688 -976
WIRE 144 -912 144 -928
WIRE 144 -912 32 -912
WIRE 144 -880 144 -912
WIRE 880 -864 880 -928
WIRE 688 -832 688 -864
WIRE 32 -800 32 -912
WIRE 144 -800 32 -800
WIRE 144 -784 144 -800
WIRE 688 -640 688 -672
WIRE 1184 -624 912 -624
WIRE 688 -528 688 -544
WIRE 912 -528 912 -624
WIRE 912 -528 688 -528
WIRE 976 -528 912 -528
WIRE 1168 -528 1056 -528
WIRE 1184 -528 1184 -624
WIRE 1184 -528 1168 -528
WIRE 1376 -528 1184 -528
WIRE 496 -496 496 -1184
WIRE 624 -496 624 -592
WIRE 624 -496 496 -496
WIRE 688 -480 688 -528
WIRE 1184 -464 1184 -528
WIRE 1376 -448 1376 -528
WIRE 624 -432 624 -496
WIRE 1184 -352 1184 -384
WIRE 1376 -352 1376 -384
FLAG 880 -864 0
FLAG 688 -1536 Vcc
FLAG 688 -1232 0
FLAG 688 -1104 Vcc
FLAG 880 -1536 Vcc
FLAG -336 -1280 0
FLAG -336 -1440 Vcc
FLAG -144 -1280 0
FLAG -144 -1472 -5V
FLAG 688 -832 0
FLAG 1344 -1024 0
FLAG 144 -784 0
FLAG 400 -1184 IN
FLAG 1328 -1200 OUT
FLAG -512 -1280 0
FLAG -512 -1440 -Vcc
FLAG 1536 -1024 0
FLAG 1184 -352 0
FLAG 1168 -528 OUT2
FLAG 1376 -352 0
FLAG 688 -672 Vcc
FLAG 688 -384 0
SYMBOL npn 624 -1072 R0
SYMATTR InstName 1stgPDB
SYMATTR Value 2N3904
SYMBOL pnp 816 -928 M180
SYMATTR InstName 2stgPDB
SYMATTR Value 2N3906
SYMBOL res 672 -960 R0
SYMATTR InstName 1stgPDR
SYMATTR Value {R1stg}
SYMBOL res 672 -1520 R0
SYMATTR InstName 1stgPUR
SYMATTR Value {R1stg}
SYMBOL npn 816 -1440 R0
SYMATTR InstName 2stgPUB
SYMATTR Value 2N3904
SYMBOL pnp 624 -1264 M180
SYMATTR InstName 1stgPUB
SYMATTR Value 2N3906
SYMBOL res 864 -1328 R0
SYMATTR InstName 2stgPUR
SYMATTR Value {R2stg}
SYMBOL res 864 -1168 R0
SYMATTR InstName 2stgPDR
SYMATTR Value {R2stg}
SYMBOL voltage -336 -1408 R0
WINDOW 123 0 0 Left 0
WINDOW 39 0 0 Left 0
SYMATTR InstName V7
SYMATTR Value 9
SYMBOL voltage -144 -1408 R0
WINDOW 123 0 0 Left 0
WINDOW 39 0 0 Left 0
SYMATTR InstName V1
SYMATTR Value -5v
SYMBOL voltage 144 -1152 R0
WINDOW 123 24 44 Left 2
WINDOW 39 0 0 Left 0
SYMATTR Value2 AC 1
SYMATTR InstName V2
SYMATTR Value 4
SYMBOL res 1328 -1152 R0
SYMATTR InstName RLoad
SYMATTR Value {Rtest}
SYMBOL voltage 144 -1024 R0
WINDOW 123 24 44 Left 2
WINDOW 39 0 0 Left 0
SYMATTR Value2 AC 0
SYMATTR InstName V3
SYMATTR Value PULSE(-12 12 10u 1n 1n 50u 100u)
SYMBOL voltage 144 -896 R0
WINDOW 123 0 0 Left 0
WINDOW 39 0 0 Left 0
SYMATTR InstName V4
SYMATTR Value 4
SYMBOL voltage -512 -1408 R0
WINDOW 123 0 0 Left 0
WINDOW 39 0 0 Left 0
SYMATTR InstName V5
SYMATTR Value -9
SYMBOL res 1232 -1216 R90
WINDOW 0 0 56 VBottom 2
WINDOW 3 32 56 VTop 2
SYMATTR InstName Rsafety
SYMATTR Value {50.1-R2stg}
SYMBOL cap 1520 -1120 R0
SYMATTR InstName C1
SYMATTR Value 500p
SYMBOL npn 624 -640 R0
SYMATTR InstName Q1
SYMATTR Value 2N3904
SYMBOL pnp 624 -384 M180
SYMATTR InstName Q2
SYMATTR Value 2N3906
SYMBOL res 1168 -480 R0
SYMATTR InstName RLoad1
SYMATTR Value {Rtest}
SYMBOL res 1072 -544 R90
WINDOW 0 0 56 VBottom 2
WINDOW 3 32 56 VTop 2
SYMATTR InstName Rsafety1
SYMATTR Value {50.1-R2stg}
SYMBOL cap 1360 -448 R0
SYMATTR InstName C2
SYMATTR Value 500p
TEXT -144 -1752 Left 2 !.ic V(N003)=-5
TEXT 16 -592 Left 2 !.dc V3 0 9
TEXT 1264 -1440 Left 2 ;.step dec param Rtest 10 1k 1
TEXT 1232 -1496 Left 2 !.param R1stg=10k R2stg=20 Rtest=100
TEXT 1248 -1400 Left 2 ;.step dec param R1stg 100 1k 3
TEXT 24 -552 Left 2 ;.ac dec 10 1m 100Meg
TEXT 1256 -1344 Left 2 ;.step param R2stg list 1 5 10 20 50 100
TEXT 32 -512 Left 2 ;.tran 0 100u 1u
