Version 4
SHEET 1 1556 680
WIRE 352 -80 240 -80
WIRE 512 -80 432 -80
WIRE 1248 -80 1136 -80
WIRE 1408 -80 1328 -80
WIRE 240 -32 240 -80
WIRE 1136 -32 1136 -80
WIRE 240 96 240 48
WIRE 1136 96 1136 48
WIRE 16 144 -80 144
WIRE 144 144 96 144
WIRE 176 144 144 144
WIRE 144 176 144 144
WIRE 1088 176 992 176
WIRE 144 272 144 256
WIRE 240 272 240 192
WIRE 240 272 144 272
WIRE 240 304 240 272
WIRE 1136 304 1136 192
FLAG 512 0 0
FLAG 240 304 0
FLAG -80 224 0
FLAG 1408 0 0
FLAG 1136 304 0
FLAG 992 256 0
SYMBOL npn 176 96 R0
SYMATTR InstName Q1
SYMATTR Value 2N2222
SYMBOL res 224 -48 R0
SYMATTR InstName R1
SYMATTR Value 25
SYMBOL voltage 512 -96 R0
WINDOW 123 0 0 Left 0
WINDOW 39 0 0 Left 0
SYMATTR InstName V1
SYMATTR Value 5.5
SYMBOL voltage -80 128 R0
WINDOW 123 0 0 Left 0
WINDOW 39 0 0 Left 0
SYMATTR InstName V2
SYMATTR Value 3.3
SYMBOL res 112 128 R90
WINDOW 0 0 56 VBottom 2
WINDOW 3 32 56 VTop 2
SYMATTR InstName R2
SYMATTR Value {R}
SYMBOL res 128 160 R0
SYMATTR InstName R3
SYMATTR Value 100k
SYMBOL res 448 -96 R90
WINDOW 0 0 56 VBottom 2
WINDOW 3 32 56 VTop 2
SYMATTR InstName R4
SYMATTR Value 10
SYMBOL res 1120 -48 R0
SYMATTR InstName R5
SYMATTR Value 25
SYMBOL voltage 1408 -96 R0
WINDOW 123 0 0 Left 0
WINDOW 39 0 0 Left 0
SYMATTR InstName V3
SYMATTR Value 5.5
SYMBOL voltage 992 160 R0
WINDOW 123 0 0 Left 0
WINDOW 39 0 0 Left 0
SYMATTR InstName V4
SYMATTR Value 3.3
SYMBOL res 1344 -96 R90
WINDOW 0 0 56 VBottom 2
WINDOW 3 32 56 VTop 2
SYMATTR InstName R8
SYMATTR Value 10
SYMBOL nmos 1088 96 R0
SYMATTR InstName M1
SYMATTR Value 2N7002
TEXT 432 208 Left 2 !.op
TEXT 408 272 Left 2 !.step param R 1k 10k
