Version 4
SHEET 1 880 680
WIRE 368 64 304 64
WIRE 512 64 448 64
WIRE 64 112 -64 112
WIRE 80 112 64 112
WIRE 192 112 160 112
WIRE 240 112 192 112
WIRE -64 128 -64 112
WIRE 192 144 192 112
WIRE -64 224 -64 208
WIRE 304 224 304 160
WIRE 384 368 304 368
WIRE 528 368 464 368
WIRE 64 448 64 112
WIRE 96 448 64 448
WIRE 208 448 176 448
WIRE 256 448 208 448
WIRE 208 480 208 448
WIRE 304 560 304 464
FLAG -64 224 0
FLAG 192 224 0
FLAG 208 560 0
FLAG 304 224 0
FLAG 304 560 0
FLAG 528 448 0
FLAG 512 144 0
SYMBOL voltage -64 112 R0
WINDOW 123 0 0 Left 0
WINDOW 39 0 0 Left 0
SYMATTR InstName V1
SYMATTR Value 5
SYMBOL npn 240 64 R0
SYMATTR InstName Q1
SYMATTR Value 2N2222
SYMBOL nmos 256 368 R0
SYMATTR InstName M1
SYMATTR Value 2N7002
SYMBOL res 176 96 R90
WINDOW 0 0 56 VBottom 2
WINDOW 3 32 56 VTop 2
SYMATTR InstName R1
SYMATTR Value 1k
SYMBOL res 176 128 R0
SYMATTR InstName R2
SYMATTR Value 10k
SYMBOL res 192 432 R90
WINDOW 0 0 56 VBottom 2
WINDOW 3 32 56 VTop 2
SYMATTR InstName R3
SYMATTR Value 1k
SYMBOL res 192 464 R0
SYMATTR InstName R4
SYMATTR Value 10k
SYMBOL voltage 512 48 R0
WINDOW 123 0 0 Left 0
WINDOW 39 0 0 Left 0
SYMATTR InstName V2
SYMATTR Value {Ve}
SYMBOL voltage 528 352 R0
WINDOW 123 0 0 Left 0
WINDOW 39 0 0 Left 0
SYMATTR InstName V3
SYMATTR Value {Ve}
SYMBOL res 464 48 R90
WINDOW 0 0 56 VBottom 2
WINDOW 3 32 56 VTop 2
SYMATTR InstName R5
SYMATTR Value 100
SYMBOL res 480 352 R90
WINDOW 0 0 56 VBottom 2
WINDOW 3 32 56 VTop 2
SYMATTR InstName R6
SYMATTR Value 100
TEXT 592 216 Left 2 !.op
TEXT 592 256 Left 2 !.step param Ve -10 20
