Version 4
SHEET 1 968 680
WIRE 912 -128 800 -128
WIRE 224 -32 112 -32
WIRE 800 16 800 -128
WIRE -208 64 -736 64
WIRE 720 64 112 64
WIRE 224 96 224 -32
WIRE 224 160 112 160
WIRE 800 160 800 112
WIRE 800 160 224 160
FLAG -48 -96 12V
FLAG -288 160 12V
FLAG 224 -96 12V
FLAG -48 416 0
FLAG 352 512 0
FLAG 352 432 12V
FLAG 800 240 0
FLAG 912 -48 0
FLAG -736 144 0
SYMBOL PowerProducts\\LTC7062 -48 160 R0
SYMATTR InstName U1
SYMBOL EXTRA\\IRF\\NMOSFET\\irfz44n 768 64 R0
SYMATTR InstName U2
SYMBOL res -192 144 R90
WINDOW 0 0 56 VBottom 2
WINDOW 3 32 56 VTop 2
SYMATTR InstName R1
SYMATTR Value 51k
SYMBOL cap 208 96 R0
SYMATTR InstName C1
SYMATTR Value 1µ
SYMBOL zener 208 -96 R0
SYMATTR InstName D1
SYMATTR Value KDZV16B
SYMATTR Description Diode
SYMATTR Type diode
SYMBOL voltage 352 416 R0
WINDOW 123 0 0 Left 0
WINDOW 39 0 0 Left 0
SYMATTR InstName V1
SYMATTR Value 12
SYMBOL res 784 144 R0
SYMATTR InstName R2
SYMATTR Value 10
SYMBOL voltage 912 -144 R0
WINDOW 123 0 0 Left 0
WINDOW 39 0 0 Left 0
SYMATTR InstName V2
SYMATTR Value 30
SYMBOL voltage -736 48 R0
WINDOW 123 0 0 Left 0
WINDOW 39 0 0 Left 0
SYMATTR InstName V3
SYMATTR Value PULSE(0 12 1m 1n 1n 4m 100m)
TEXT -354 536 Left 2 !.tran 10m
