Version 4
SHEET 1 880 680
WIRE 176 -64 -16 -64
WIRE 464 -64 176 -64
WIRE -16 16 -16 -64
WIRE 176 80 176 16
WIRE -16 128 -16 96
WIRE 96 128 -16 128
WIRE -16 160 -16 128
WIRE -224 208 -352 208
WIRE -96 208 -144 208
WIRE -16 272 -16 256
WIRE 176 272 176 176
WIRE 176 272 -16 272
WIRE -352 288 -352 208
WIRE 176 320 176 272
FLAG 176 320 0
FLAG 464 16 0
FLAG -352 368 0
SYMBOL EXTRA\\IRF\\NMOSFET\\irlz44n 144 128 R0
SYMATTR InstName U1
SYMBOL EXTRA\\Philips\\NMOSFET\\2N7002 -48 208 R0
SYMATTR InstName U2
SYMBOL res 160 -80 R0
SYMATTR InstName R1
SYMATTR Value 8k
SYMBOL res -32 0 R0
SYMATTR InstName R2
SYMATTR Value 10k
SYMBOL voltage 464 -80 R0
WINDOW 123 0 0 Left 0
WINDOW 39 0 0 Left 0
SYMATTR InstName V1
SYMATTR Value 12
SYMBOL voltage -352 272 R0
WINDOW 123 0 0 Left 0
WINDOW 39 0 0 Left 0
SYMATTR InstName V2
SYMATTR Value PULSE(0 12 1u 1n 1n 100u 200u)
SYMBOL res -128 192 R90
WINDOW 0 0 56 VBottom 2
WINDOW 3 32 56 VTop 2
SYMATTR InstName R3
SYMATTR Value 10k
TEXT -384 392 Left 2 !.tran 250u
