Version 4
SHEET 1 2768 2772
WIRE -96 -1456 -96 -1472
WIRE -96 -1456 -272 -1456
WIRE -96 -1440 -96 -1456
WIRE 96 -1376 96 -1472
WIRE -96 -1328 -96 -1360
WIRE 32 -1328 -96 -1328
WIRE -272 -1312 -272 -1456
WIRE -96 -1296 -96 -1328
WIRE 96 -1248 96 -1280
WIRE 704 -1184 704 -1248
WIRE -96 -1168 -96 -1200
WIRE 96 -1136 96 -1168
WIRE 624 -1136 96 -1136
WIRE -272 -1120 -272 -1232
WIRE -160 -1120 -160 -1248
WIRE -160 -1120 -272 -1120
WIRE -864 -1104 -864 -1120
WIRE 96 -1088 96 -1136
WIRE -272 -1072 -272 -1120
WIRE -272 -1072 -400 -1072
WIRE -464 -1024 -480 -1024
WIRE -272 -1008 -272 -1072
WIRE -96 -1008 -96 -1040
WIRE 704 -1008 704 -1088
WIRE -1024 -976 -1120 -976
WIRE -864 -960 -864 -1024
WIRE -864 -960 -960 -960
WIRE -752 -960 -864 -960
WIRE -624 -960 -688 -960
WIRE -576 -960 -624 -960
WIRE -480 -960 -480 -1024
WIRE -480 -960 -496 -960
WIRE -400 -960 -400 -976
WIRE -336 -960 -400 -960
WIRE -160 -960 -160 -1120
WIRE 96 -960 96 -1008
WIRE -1024 -944 -1040 -944
WIRE 32 -912 -96 -912
WIRE -624 -896 -624 -960
WIRE -1120 -880 -1120 -976
WIRE -1040 -880 -1040 -944
WIRE -944 -880 -1040 -880
WIRE -864 -880 -864 -960
WIRE -272 -880 -272 -912
WIRE -96 -880 -96 -912
WIRE -1120 -864 -1120 -880
WIRE -1040 -864 -1040 -880
WIRE 96 -800 96 -864
WIRE -96 -768 -96 -800
WIRE -1040 -720 -1040 -784
WIRE -1040 -608 -1040 -640
FLAG -1344 -1008 0
FLAG -1440 -1008 0
FLAG -1440 -1088 12V
FLAG -1344 -1088 -12V
FLAG -1120 -800 0
FLAG -96 -1472 12V
FLAG -96 -1168 0
FLAG -96 -1040 12V
FLAG 96 -1472 12V
FLAG -96 -768 0
FLAG 96 -800 0
FLAG 704 -928 0
FLAG 704 -1248 12V
FLAG -272 -880 0
FLAG -624 -832 -12V
FLAG -1040 -528 0
FLAG -992 -992 12V
FLAG -992 -928 -12V
FLAG -864 -1120 12V
SYMBOL voltage -1440 -1104 R0
WINDOW 123 0 0 Left 0
WINDOW 39 0 0 Left 0
SYMATTR InstName V3
SYMATTR Value 12
SYMBOL voltage -1344 -1104 R0
WINDOW 123 0 0 Left 0
WINDOW 39 0 0 Left 0
SYMATTR InstName V4
SYMATTR Value -12
SYMBOL voltage -1120 -896 R0
WINDOW 123 0 0 Left 0
WINDOW 39 0 0 Left 0
SYMATTR InstName V6
SYMATTR Value 1
SYMBOL npn -160 -1008 R0
SYMATTR InstName Q7
SYMATTR Value 2N3904
SYMBOL pnp 32 -864 M180
SYMATTR InstName Q8
SYMATTR Value 2N3906
SYMBOL res -112 -896 R0
SYMATTR InstName R9
SYMATTR Value {R1stg}
SYMBOL res -112 -1456 R0
SYMATTR InstName R10
SYMATTR Value {R1stg}
SYMBOL npn 32 -1376 R0
SYMATTR InstName Q9
SYMATTR Value 2N3904
SYMBOL pnp -160 -1200 M180
SYMATTR InstName Q10
SYMATTR Value 2N3906
SYMBOL res 80 -1264 R0
SYMATTR InstName R11
SYMATTR Value {R2stg}
SYMBOL res 80 -1104 R0
SYMATTR InstName R12
SYMATTR Value {R2stg}
SYMBOL EXTRA\\IRF\\NMOSFET\\irfp064n 672 -1136 R0
SYMATTR InstName U3
SYMBOL res -256 -1216 R180
WINDOW 0 36 76 Left 2
WINDOW 3 36 40 Left 2
SYMATTR InstName R13
SYMATTR Value 100
SYMBOL res 688 -1024 R0
SYMATTR InstName R14
SYMATTR Value 50m
SYMBOL npn -336 -1008 R0
SYMATTR InstName Q11
SYMATTR Value 2N3904
SYMBOL cap -640 -896 R0
SYMATTR InstName C2
SYMATTR Value 10p
SYMBOL res -480 -976 R90
WINDOW 0 0 56 VBottom 2
WINDOW 3 32 56 VTop 2
SYMATTR InstName R16
SYMATTR Value 10k
SYMBOL diode -752 -944 R270
WINDOW 0 32 32 VTop 2
WINDOW 3 0 32 VBottom 2
SYMATTR InstName D2
SYMATTR Value 1N4148
SYMBOL npn -464 -1072 R0
SYMATTR InstName Q12
SYMATTR Value 2N3904
SYMBOL voltage -1040 -624 R0
WINDOW 123 0 0 Left 0
WINDOW 39 0 0 Left 0
SYMATTR InstName V1
SYMATTR Value PULSE(0 2 2u 10u 10u 20u 200u)
SYMBOL SBORKA\\COMPARATOR\\lm393 -992 -960 R0
SYMATTR InstName U1
SYMBOL res -1056 -880 R0
SYMATTR InstName R1
SYMATTR Value 10k
SYMBOL res -848 -1008 R180
WINDOW 0 36 76 Left 2
WINDOW 3 36 40 Left 2
SYMATTR InstName R3
SYMATTR Value 10k
SYMBOL bv -1040 -736 R0
SYMATTR InstName B1
SYMATTR Value V=(white(2e8*time)/3)
SYMBOL res -848 -896 R90
WINDOW 0 0 56 VBottom 2
WINDOW 3 32 56 VTop 2
SYMATTR InstName R2
SYMATTR Value 10Meg
TEXT -1720 -880 Left 2 !.param R1stg=500 R2stg=10 Rtest=100
TEXT -1456 -928 Left 2 !.tran 100u
